/*--------------------------------*- C++ -*----------------------------------*\
| =========                 |                                                 |
| \      /  F ield         | OpenFOAM: The Open Source CFD Toolbox           |
|  \    /   O peration     | Version:  1.7.1                                 |
|   \  /    A nd           | Web:      http://www.OpenFOAM.org               |
|    \/     M anipulation  |                                                 |
\*---------------------------------------------------------------------------*/
FoamFile
{
    version     2.0;
    format      ascii;
    class       dictionary;
    object      setFieldsDict;
}
// * * * * created with automaticSetFields_tfc_zu_Grad3s_03.c * * * * * * * *  //


	defaultFieldValues
	(
            volScalarFieldValue c   0.00
            volScalarFieldValue fH 0.02276
            volScalarFieldValue H2  0.02276
            volScalarFieldValue O2  0.22764
            volScalarFieldValue H2O 0.0
            volScalarFieldValue N2  0.74959
            volScalarFieldValue T   293.0
            volScalarFieldValue Tu   293.0
        );
regions
(
    boxToCell
    {
        box (-10 -0.0300 -10) (10 10 10);

        fieldValues
        (
	    // xH2 = 0.073
	    volScalarFieldValue fH  0.00547
	    volScalarFieldValue H2  0.00547
	    volScalarFieldValue O2  0.23167
	    volScalarFieldValue N2  0.76286

        );
    }
    boxToCell
    {
        box (-10 -0.0280 -10) (10 10 10);

        fieldValues
        (
	    // xH2 = 0.075
	    volScalarFieldValue fH  0.00563
	    volScalarFieldValue H2  0.00563
	    volScalarFieldValue O2  0.23163
	    volScalarFieldValue N2  0.76273

        );
    }
    boxToCell
    {
        box (-10 -0.0260 -10) (10 10 10);

        fieldValues
        (
	    // xH2 = 0.078
	    volScalarFieldValue fH  0.00590
	    volScalarFieldValue H2  0.00590
	    volScalarFieldValue O2  0.23157
	    volScalarFieldValue N2  0.76253

        );
    }
    boxToCell
    {
        box (-10 -0.0240 -10) (10 10 10);

        fieldValues
        (
	    // xH2 = 0.083
	    volScalarFieldValue fH  0.00629
	    volScalarFieldValue H2  0.00629
	    volScalarFieldValue O2  0.23148
	    volScalarFieldValue N2  0.76223

        );
    }
    boxToCell
    {
        box (-10 -0.0220 -10) (10 10 10);

        fieldValues
        (
	    // xH2 = 0.089
	    volScalarFieldValue fH  0.00680
	    volScalarFieldValue H2  0.00680
	    volScalarFieldValue O2  0.23136
	    volScalarFieldValue N2  0.76184

        );
    }
    boxToCell
    {
        box (-10 -0.0200 -10) (10 10 10);

        fieldValues
        (
	    // xH2 = 0.097
	    volScalarFieldValue fH  0.00745
	    volScalarFieldValue H2  0.00745
	    volScalarFieldValue O2  0.23121
	    volScalarFieldValue N2  0.76134

        );
    }
    boxToCell
    {
        box (-10 -0.0180 -10) (10 10 10);

        fieldValues
        (
	    // xH2 = 0.106
	    volScalarFieldValue fH  0.00823
	    volScalarFieldValue H2  0.00823
	    volScalarFieldValue O2  0.23103
	    volScalarFieldValue N2  0.76074

        );
    }
    boxToCell
    {
        box (-10 -0.0160 -10) (10 10 10);

        fieldValues
        (
	    // xH2 = 0.117
	    volScalarFieldValue fH  0.00917
	    volScalarFieldValue H2  0.00917
	    volScalarFieldValue O2  0.23081
	    volScalarFieldValue N2  0.76002

        );
    }
    boxToCell
    {
        box (-10 -0.0140 -10) (10 10 10);

        fieldValues
        (
	    // xH2 = 0.129
	    volScalarFieldValue fH  0.01025
	    volScalarFieldValue H2  0.01025
	    volScalarFieldValue O2  0.23056
	    volScalarFieldValue N2  0.75919

        );
    }
    boxToCell
    {
        box (-10 -0.0120 -10) (10 10 10);

        fieldValues
        (
	    // xH2 = 0.143
	    volScalarFieldValue fH  0.01150
	    volScalarFieldValue H2  0.01150
	    volScalarFieldValue O2  0.23027
	    volScalarFieldValue N2  0.75824

        );
    }
    boxToCell
    {
        box (-10 -0.0100 -10) (10 10 10);

        fieldValues
        (
	    // xH2 = 0.158
	    volScalarFieldValue fH  0.01290
	    volScalarFieldValue H2  0.01290
	    volScalarFieldValue O2  0.22994
	    volScalarFieldValue N2  0.75716

        );
    }
    boxToCell
    {
        box (-10 -0.0080 -10) (10 10 10);

        fieldValues
        (
	    // xH2 = 0.174
	    volScalarFieldValue fH  0.01448
	    volScalarFieldValue H2  0.01448
	    volScalarFieldValue O2  0.22957
	    volScalarFieldValue N2  0.75595

        );
    }
    boxToCell
    {
        box (-10 -0.0060 -10) (10 10 10);

        fieldValues
        (
	    // xH2 = 0.191
	    volScalarFieldValue fH  0.01622
	    volScalarFieldValue H2  0.01622
	    volScalarFieldValue O2  0.22917
	    volScalarFieldValue N2  0.75461

        );
    }
    boxToCell
    {
        box (-10 -0.0040 -10) (10 10 10);

        fieldValues
        (
	    // xH2 = 0.209
	    volScalarFieldValue fH  0.01813
	    volScalarFieldValue H2  0.01813
	    volScalarFieldValue O2  0.22872
	    volScalarFieldValue N2  0.75315

        );
    }
    boxToCell
    {
        box (-10 -0.0020 -10) (10 10 10);

        fieldValues
        (
	    // xH2 = 0.228
	    volScalarFieldValue fH  0.02021
	    volScalarFieldValue H2  0.02021
	    volScalarFieldValue O2  0.22824
	    volScalarFieldValue N2  0.75155

        );
    }
    boxToCell
    {
        box (-10 -0.0000 -10) (10 10 10);

        fieldValues
        (
	    // xH2 = 0.247
	    volScalarFieldValue fH  0.02245
	    volScalarFieldValue H2  0.02245
	    volScalarFieldValue O2  0.22772
	    volScalarFieldValue N2  0.74983

        );
    }
    boxToCell
    {
        box (-10 0.0020 -10) (10 10 10);

        fieldValues
        (
	    // xH2 = 0.267
	    volScalarFieldValue fH  0.02486
	    volScalarFieldValue H2  0.02486
	    volScalarFieldValue O2  0.22716
	    volScalarFieldValue N2  0.74799

        );
    }
    boxToCell
    {
        box (-10 0.0040 -10) (10 10 10);

        fieldValues
        (
	    // xH2 = 0.287
	    volScalarFieldValue fH  0.02741
	    volScalarFieldValue H2  0.02741
	    volScalarFieldValue O2  0.22656
	    volScalarFieldValue N2  0.74603

        );
    }
    boxToCell
    {
        box (-10 0.0060 -10) (10 10 10);

        fieldValues
        (
	    // xH2 = 0.307
	    volScalarFieldValue fH  0.03008
	    volScalarFieldValue H2  0.03008
	    volScalarFieldValue O2  0.22594
	    volScalarFieldValue N2  0.74398

        );
    }
    boxToCell
    {
        box (-10 0.0080 -10) (10 10 10);

        fieldValues
        (
	    // xH2 = 0.327
	    volScalarFieldValue fH  0.03287
	    volScalarFieldValue H2  0.03287
	    volScalarFieldValue O2  0.22529
	    volScalarFieldValue N2  0.74184

        );
    }
    boxToCell
    {
        box (-10 0.0100 -10) (10 10 10);

        fieldValues
        (
	    // xH2 = 0.346
	    volScalarFieldValue fH  0.03573
	    volScalarFieldValue H2  0.03573
	    volScalarFieldValue O2  0.22462
	    volScalarFieldValue N2  0.73965

        );
    }
    boxToCell
    {
        box (-10 0.0120 -10) (10 10 10);

        fieldValues
        (
	    // xH2 = 0.365
	    volScalarFieldValue fH  0.03861
	    volScalarFieldValue H2  0.03861
	    volScalarFieldValue O2  0.22395
	    volScalarFieldValue N2  0.73744

        );
    }
    boxToCell
    {
        box (-10 0.0140 -10) (10 10 10);

        fieldValues
        (
	    // xH2 = 0.382
	    volScalarFieldValue fH  0.04148
	    volScalarFieldValue H2  0.04148
	    volScalarFieldValue O2  0.22328
	    volScalarFieldValue N2  0.73523

        );
    }
    boxToCell
    {
        box (-10 0.0160 -10) (10 10 10);

        fieldValues
        (
	    // xH2 = 0.399
	    volScalarFieldValue fH  0.04427
	    volScalarFieldValue H2  0.04427
	    volScalarFieldValue O2  0.22263
	    volScalarFieldValue N2  0.73310

        );
    }
    boxToCell
    {
        box (-10 0.0180 -10) (10 10 10);

        fieldValues
        (
	    // xH2 = 0.413
	    volScalarFieldValue fH  0.04690
	    volScalarFieldValue H2  0.04690
	    volScalarFieldValue O2  0.22202
	    volScalarFieldValue N2  0.73108

        );
    }
    boxToCell
    {
        box (-10 0.0200 -10) (10 10 10);

        fieldValues
        (
	    // xH2 = 0.426
	    volScalarFieldValue fH  0.04928
	    volScalarFieldValue H2  0.04928
	    volScalarFieldValue O2  0.22147
	    volScalarFieldValue N2  0.72925

        );
    }
    boxToCell
    {
        box (-10 0.0220 -10) (10 10 10);

        fieldValues
        (
	    // xH2 = 0.436
	    volScalarFieldValue fH  0.05134
	    volScalarFieldValue H2  0.05134
	    volScalarFieldValue O2  0.22099
	    volScalarFieldValue N2  0.72768

        );
    }
    boxToCell
    {
        box (-10 0.0240 -10) (10 10 10);

        fieldValues
        (
	    // xH2 = 0.444
	    volScalarFieldValue fH  0.05295
	    volScalarFieldValue H2  0.05295
	    volScalarFieldValue O2  0.22061
	    volScalarFieldValue N2  0.72644

        );
    }
    boxToCell
    {
        box (-10 0.0260 -10) (10 10 10);

        fieldValues
        (
	    // xH2 = 0.450
	    volScalarFieldValue fH  0.05404
	    volScalarFieldValue H2  0.05404
	    volScalarFieldValue O2  0.22036
	    volScalarFieldValue N2  0.72560

        );
    }
    boxToCell
    {
        box (-10 0.0280 -10) (10 10 10);

        fieldValues
        (
	    // xH2 = 0.452
	    volScalarFieldValue fH  0.05451
	    volScalarFieldValue H2  0.05451
	    volScalarFieldValue O2  0.22025
	    volScalarFieldValue N2  0.72525

        );
    }

    cylinderToCell
    {
        p1       (0.0 0.0 -1); // start point on cylinder axis
        p2       (0.0 0.0  1);  // end point on cylinder axis
        radius   0.02451;
        fieldValues
        (

            volScalarFieldValue c   1.00
            volScalarFieldValue fH  0.02276
            volScalarFieldValue H2  0.00000
            volScalarFieldValue O2  0.04697
            volScalarFieldValue H2O 0.20343
            volScalarFieldValue N2  0.72525
            volScalarFieldValue T   2204.7
        );
    }
);

// ************************************************************************* //
// inhomogeneous mixture for closed vessel with 25.0 % H2 generated         //
// ************************************************************************* //
