/*--------------------------------*- C++ -*----------------------------------*\
| =========                 |                                                 |
| \      /  F ield         | OpenFOAM: The Open Source CFD Toolbox           |
|  \    /   O peration     | Version:  1.5                                   |
|   \  /    A nd           | Web:      http://www.OpenFOAM.org               |
|    \/     M anipulation  |                                                 |
\*---------------------------------------------------------------------------*/
FoamFile
{
    version     2.0;
    format      ascii;
    class       dictionary;
    object      blockMeshDict;
}
// * * * * created with GraVentGen4.c * * * * * * * * * * * * * * * * * * * //

convertToMeters 0.001;

vertices
(

   (   0   30    1) // vert. 0 start
   (   0   30   -1) // vert. 1 
   (   0  -30    1) // vert. 2 
   (   0  -30   -1) // vert. 3 
   (3030  3000    1) // vert. 4 
   (3030  3000    -1) // vert. 5 
   (2970   3000    1) // vert. 6 start
   (2970   3000    -1) // vert. 7 
);


blocks
(

    hex (   3    5    7    1    2    4    6    0)  (1500  30   1) simpleGrading (1 1 1) // block 32767
);


edges // only required for curved edges
(
	arc 2 4 (2143 857 1)
	arc 3 5 (2143 857 -1)
	arc 0 6 (2100 900 1)
	arc 1 7 (2100 900 -1)
);

patches
(  // Normal vector has to point out of the domain;
   // (right hand rule in order of enumeration)
  wall wand
   (
    (2 0 1 3)
    (0 6 7 1)
    (5 7 6 4)
    (4 2 3 5)
   )

    empty frontAndBack
    (
      (2 4 6 0) // front
      (3 1 7 5) // back
    )
);

mergePatchPairs
(
);

// * * * * created with Vent2D * * * * * * * * * * * * * * * * * * * * * * * //

