/*--------------------------------*- C++ -*----------------------------------*\
| =========                 |                                                 |
| \      /  F ield         | OpenFOAM: The Open Source CFD Toolbox           |
|  \    /   O peration     | Version:  1.7.1                                 |
|   \  /    A nd           | Web:      http://www.OpenFOAM.org               |
|    \/     M anipulation  |                                                 |
\*---------------------------------------------------------------------------*/
FoamFile
{
    version     2.0;
    format      ascii;
    class       dictionary;
    object      setFieldsDict;
}
// * * * * created with automaticSetFields_tfc_zu_Grad3s_03.c * * * * * * * *  //


	defaultFieldValues
	(
            volScalarFieldValue c   0.00
            volScalarFieldValue fH 0.02908
            volScalarFieldValue H2  0.02908
            volScalarFieldValue O2  0.22617
            volScalarFieldValue H2O 0.0
            volScalarFieldValue N2  0.74475
            volScalarFieldValue T   293.0
            volScalarFieldValue Tu   293.0
        );
regions
(
    boxToCell
    {
        box (-10 -0.0300 -10) (10 10 10);

        fieldValues
        (
	    // xH2 = 0.097
	    volScalarFieldValue fH  0.00741
	    volScalarFieldValue H2  0.00741
	    volScalarFieldValue O2  0.23122
	    volScalarFieldValue N2  0.76137

        );
    }
    boxToCell
    {
        box (-10 -0.0290 -10) (10 10 10);

        fieldValues
        (
	    // xH2 = 0.097
	    volScalarFieldValue fH  0.00748
	    volScalarFieldValue H2  0.00748
	    volScalarFieldValue O2  0.23120
	    volScalarFieldValue N2  0.76132

        );
    }
    boxToCell
    {
        box (-10 -0.0280 -10) (10 10 10);

        fieldValues
        (
	    // xH2 = 0.098
	    volScalarFieldValue fH  0.00757
	    volScalarFieldValue H2  0.00757
	    volScalarFieldValue O2  0.23118
	    volScalarFieldValue N2  0.76124

        );
    }
    boxToCell
    {
        box (-10 -0.0270 -10) (10 10 10);

        fieldValues
        (
	    // xH2 = 0.100
	    volScalarFieldValue fH  0.00771
	    volScalarFieldValue H2  0.00771
	    volScalarFieldValue O2  0.23115
	    volScalarFieldValue N2  0.76114

        );
    }
    boxToCell
    {
        box (-10 -0.0260 -10) (10 10 10);

        fieldValues
        (
	    // xH2 = 0.102
	    volScalarFieldValue fH  0.00787
	    volScalarFieldValue H2  0.00787
	    volScalarFieldValue O2  0.23111
	    volScalarFieldValue N2  0.76101

        );
    }
    boxToCell
    {
        box (-10 -0.0250 -10) (10 10 10);

        fieldValues
        (
	    // xH2 = 0.104
	    volScalarFieldValue fH  0.00808
	    volScalarFieldValue H2  0.00808
	    volScalarFieldValue O2  0.23106
	    volScalarFieldValue N2  0.76086

        );
    }
    boxToCell
    {
        box (-10 -0.0240 -10) (10 10 10);

        fieldValues
        (
	    // xH2 = 0.107
	    volScalarFieldValue fH  0.00832
	    volScalarFieldValue H2  0.00832
	    volScalarFieldValue O2  0.23101
	    volScalarFieldValue N2  0.76067

        );
    }
    boxToCell
    {
        box (-10 -0.0230 -10) (10 10 10);

        fieldValues
        (
	    // xH2 = 0.110
	    volScalarFieldValue fH  0.00860
	    volScalarFieldValue H2  0.00860
	    volScalarFieldValue O2  0.23094
	    volScalarFieldValue N2  0.76045

        );
    }
    boxToCell
    {
        box (-10 -0.0220 -10) (10 10 10);

        fieldValues
        (
	    // xH2 = 0.114
	    volScalarFieldValue fH  0.00893
	    volScalarFieldValue H2  0.00893
	    volScalarFieldValue O2  0.23087
	    volScalarFieldValue N2  0.76021

        );
    }
    boxToCell
    {
        box (-10 -0.0210 -10) (10 10 10);

        fieldValues
        (
	    // xH2 = 0.118
	    volScalarFieldValue fH  0.00929
	    volScalarFieldValue H2  0.00929
	    volScalarFieldValue O2  0.23078
	    volScalarFieldValue N2  0.75993

        );
    }
    boxToCell
    {
        box (-10 -0.0200 -10) (10 10 10);

        fieldValues
        (
	    // xH2 = 0.123
	    volScalarFieldValue fH  0.00970
	    volScalarFieldValue H2  0.00970
	    volScalarFieldValue O2  0.23069
	    volScalarFieldValue N2  0.75961

        );
    }
    boxToCell
    {
        box (-10 -0.0190 -10) (10 10 10);

        fieldValues
        (
	    // xH2 = 0.128
	    volScalarFieldValue fH  0.01015
	    volScalarFieldValue H2  0.01015
	    volScalarFieldValue O2  0.23058
	    volScalarFieldValue N2  0.75927

        );
    }
    boxToCell
    {
        box (-10 -0.0180 -10) (10 10 10);

        fieldValues
        (
	    // xH2 = 0.133
	    volScalarFieldValue fH  0.01065
	    volScalarFieldValue H2  0.01065
	    volScalarFieldValue O2  0.23047
	    volScalarFieldValue N2  0.75889

        );
    }
    boxToCell
    {
        box (-10 -0.0170 -10) (10 10 10);

        fieldValues
        (
	    // xH2 = 0.139
	    volScalarFieldValue fH  0.01119
	    volScalarFieldValue H2  0.01119
	    volScalarFieldValue O2  0.23034
	    volScalarFieldValue N2  0.75847

        );
    }
    boxToCell
    {
        box (-10 -0.0160 -10) (10 10 10);

        fieldValues
        (
	    // xH2 = 0.146
	    volScalarFieldValue fH  0.01178
	    volScalarFieldValue H2  0.01178
	    volScalarFieldValue O2  0.23020
	    volScalarFieldValue N2  0.75802

        );
    }
    boxToCell
    {
        box (-10 -0.0150 -10) (10 10 10);

        fieldValues
        (
	    // xH2 = 0.152
	    volScalarFieldValue fH  0.01241
	    volScalarFieldValue H2  0.01241
	    volScalarFieldValue O2  0.23005
	    volScalarFieldValue N2  0.75753

        );
    }
    boxToCell
    {
        box (-10 -0.0140 -10) (10 10 10);

        fieldValues
        (
	    // xH2 = 0.160
	    volScalarFieldValue fH  0.01310
	    volScalarFieldValue H2  0.01310
	    volScalarFieldValue O2  0.22990
	    volScalarFieldValue N2  0.75701

        );
    }
    boxToCell
    {
        box (-10 -0.0130 -10) (10 10 10);

        fieldValues
        (
	    // xH2 = 0.167
	    volScalarFieldValue fH  0.01383
	    volScalarFieldValue H2  0.01383
	    volScalarFieldValue O2  0.22972
	    volScalarFieldValue N2  0.75644

        );
    }
    boxToCell
    {
        box (-10 -0.0120 -10) (10 10 10);

        fieldValues
        (
	    // xH2 = 0.175
	    volScalarFieldValue fH  0.01462
	    volScalarFieldValue H2  0.01462
	    volScalarFieldValue O2  0.22954
	    volScalarFieldValue N2  0.75584

        );
    }
    boxToCell
    {
        box (-10 -0.0110 -10) (10 10 10);

        fieldValues
        (
	    // xH2 = 0.183
	    volScalarFieldValue fH  0.01545
	    volScalarFieldValue H2  0.01545
	    volScalarFieldValue O2  0.22935
	    volScalarFieldValue N2  0.75520

        );
    }
    boxToCell
    {
        box (-10 -0.0100 -10) (10 10 10);

        fieldValues
        (
	    // xH2 = 0.192
	    volScalarFieldValue fH  0.01634
	    volScalarFieldValue H2  0.01634
	    volScalarFieldValue O2  0.22914
	    volScalarFieldValue N2  0.75452

        );
    }
    boxToCell
    {
        box (-10 -0.0090 -10) (10 10 10);

        fieldValues
        (
	    // xH2 = 0.201
	    volScalarFieldValue fH  0.01729
	    volScalarFieldValue H2  0.01729
	    volScalarFieldValue O2  0.22892
	    volScalarFieldValue N2  0.75379

        );
    }
    boxToCell
    {
        box (-10 -0.0080 -10) (10 10 10);

        fieldValues
        (
	    // xH2 = 0.210
	    volScalarFieldValue fH  0.01828
	    volScalarFieldValue H2  0.01828
	    volScalarFieldValue O2  0.22869
	    volScalarFieldValue N2  0.75303

        );
    }
    boxToCell
    {
        box (-10 -0.0070 -10) (10 10 10);

        fieldValues
        (
	    // xH2 = 0.220
	    volScalarFieldValue fH  0.01933
	    volScalarFieldValue H2  0.01933
	    volScalarFieldValue O2  0.22844
	    volScalarFieldValue N2  0.75222

        );
    }
    boxToCell
    {
        box (-10 -0.0060 -10) (10 10 10);

        fieldValues
        (
	    // xH2 = 0.230
	    volScalarFieldValue fH  0.02044
	    volScalarFieldValue H2  0.02044
	    volScalarFieldValue O2  0.22818
	    volScalarFieldValue N2  0.75137

        );
    }
    boxToCell
    {
        box (-10 -0.0050 -10) (10 10 10);

        fieldValues
        (
	    // xH2 = 0.240
	    volScalarFieldValue fH  0.02161
	    volScalarFieldValue H2  0.02161
	    volScalarFieldValue O2  0.22791
	    volScalarFieldValue N2  0.75048

        );
    }
    boxToCell
    {
        box (-10 -0.0040 -10) (10 10 10);

        fieldValues
        (
	    // xH2 = 0.251
	    volScalarFieldValue fH  0.02282
	    volScalarFieldValue H2  0.02282
	    volScalarFieldValue O2  0.22763
	    volScalarFieldValue N2  0.74955

        );
    }
    boxToCell
    {
        box (-10 -0.0030 -10) (10 10 10);

        fieldValues
        (
	    // xH2 = 0.261
	    volScalarFieldValue fH  0.02410
	    volScalarFieldValue H2  0.02410
	    volScalarFieldValue O2  0.22733
	    volScalarFieldValue N2  0.74857

        );
    }
    boxToCell
    {
        box (-10 -0.0020 -10) (10 10 10);

        fieldValues
        (
	    // xH2 = 0.272
	    volScalarFieldValue fH  0.02543
	    volScalarFieldValue H2  0.02543
	    volScalarFieldValue O2  0.22702
	    volScalarFieldValue N2  0.74754

        );
    }
    boxToCell
    {
        box (-10 -0.0010 -10) (10 10 10);

        fieldValues
        (
	    // xH2 = 0.283
	    volScalarFieldValue fH  0.02682
	    volScalarFieldValue H2  0.02682
	    volScalarFieldValue O2  0.22670
	    volScalarFieldValue N2  0.74648

        );
    }
    boxToCell
    {
        box (-10 -0.0000 -10) (10 10 10);

        fieldValues
        (
	    // xH2 = 0.294
	    volScalarFieldValue fH  0.02827
	    volScalarFieldValue H2  0.02827
	    volScalarFieldValue O2  0.22636
	    volScalarFieldValue N2  0.74537

        );
    }
    boxToCell
    {
        box (-10 0.0010 -10) (10 10 10);

        fieldValues
        (
	    // xH2 = 0.305
	    volScalarFieldValue fH  0.02977
	    volScalarFieldValue H2  0.02977
	    volScalarFieldValue O2  0.22601
	    volScalarFieldValue N2  0.74422

        );
    }
    boxToCell
    {
        box (-10 0.0020 -10) (10 10 10);

        fieldValues
        (
	    // xH2 = 0.316
	    volScalarFieldValue fH  0.03133
	    volScalarFieldValue H2  0.03133
	    volScalarFieldValue O2  0.22565
	    volScalarFieldValue N2  0.74302

        );
    }
    boxToCell
    {
        box (-10 0.0030 -10) (10 10 10);

        fieldValues
        (
	    // xH2 = 0.328
	    volScalarFieldValue fH  0.03294
	    volScalarFieldValue H2  0.03294
	    volScalarFieldValue O2  0.22527
	    volScalarFieldValue N2  0.74179

        );
    }
    boxToCell
    {
        box (-10 0.0040 -10) (10 10 10);

        fieldValues
        (
	    // xH2 = 0.339
	    volScalarFieldValue fH  0.03460
	    volScalarFieldValue H2  0.03460
	    volScalarFieldValue O2  0.22489
	    volScalarFieldValue N2  0.74052

        );
    }
    boxToCell
    {
        box (-10 0.0050 -10) (10 10 10);

        fieldValues
        (
	    // xH2 = 0.350
	    volScalarFieldValue fH  0.03631
	    volScalarFieldValue H2  0.03631
	    volScalarFieldValue O2  0.22449
	    volScalarFieldValue N2  0.73920

        );
    }
    boxToCell
    {
        box (-10 0.0060 -10) (10 10 10);

        fieldValues
        (
	    // xH2 = 0.362
	    volScalarFieldValue fH  0.03806
	    volScalarFieldValue H2  0.03806
	    volScalarFieldValue O2  0.22408
	    volScalarFieldValue N2  0.73786

        );
    }
    boxToCell
    {
        box (-10 0.0070 -10) (10 10 10);

        fieldValues
        (
	    // xH2 = 0.373
	    volScalarFieldValue fH  0.03986
	    volScalarFieldValue H2  0.03986
	    volScalarFieldValue O2  0.22366
	    volScalarFieldValue N2  0.73648

        );
    }
    boxToCell
    {
        box (-10 0.0080 -10) (10 10 10);

        fieldValues
        (
	    // xH2 = 0.384
	    volScalarFieldValue fH  0.04170
	    volScalarFieldValue H2  0.04170
	    volScalarFieldValue O2  0.22323
	    volScalarFieldValue N2  0.73507

        );
    }
    boxToCell
    {
        box (-10 0.0090 -10) (10 10 10);

        fieldValues
        (
	    // xH2 = 0.395
	    volScalarFieldValue fH  0.04357
	    volScalarFieldValue H2  0.04357
	    volScalarFieldValue O2  0.22280
	    volScalarFieldValue N2  0.73363

        );
    }
    boxToCell
    {
        box (-10 0.0100 -10) (10 10 10);

        fieldValues
        (
	    // xH2 = 0.405
	    volScalarFieldValue fH  0.04547
	    volScalarFieldValue H2  0.04547
	    volScalarFieldValue O2  0.22235
	    volScalarFieldValue N2  0.73217

        );
    }
    boxToCell
    {
        box (-10 0.0110 -10) (10 10 10);

        fieldValues
        (
	    // xH2 = 0.416
	    volScalarFieldValue fH  0.04739
	    volScalarFieldValue H2  0.04739
	    volScalarFieldValue O2  0.22191
	    volScalarFieldValue N2  0.73070

        );
    }
    boxToCell
    {
        box (-10 0.0120 -10) (10 10 10);

        fieldValues
        (
	    // xH2 = 0.426
	    volScalarFieldValue fH  0.04933
	    volScalarFieldValue H2  0.04933
	    volScalarFieldValue O2  0.22146
	    volScalarFieldValue N2  0.72922

        );
    }
    boxToCell
    {
        box (-10 0.0130 -10) (10 10 10);

        fieldValues
        (
	    // xH2 = 0.436
	    volScalarFieldValue fH  0.05127
	    volScalarFieldValue H2  0.05127
	    volScalarFieldValue O2  0.22100
	    volScalarFieldValue N2  0.72773

        );
    }
    boxToCell
    {
        box (-10 0.0140 -10) (10 10 10);

        fieldValues
        (
	    // xH2 = 0.446
	    volScalarFieldValue fH  0.05320
	    volScalarFieldValue H2  0.05320
	    volScalarFieldValue O2  0.22055
	    volScalarFieldValue N2  0.72625

        );
    }
    boxToCell
    {
        box (-10 0.0150 -10) (10 10 10);

        fieldValues
        (
	    // xH2 = 0.455
	    volScalarFieldValue fH  0.05512
	    volScalarFieldValue H2  0.05512
	    volScalarFieldValue O2  0.22011
	    volScalarFieldValue N2  0.72477

        );
    }
    boxToCell
    {
        box (-10 0.0160 -10) (10 10 10);

        fieldValues
        (
	    // xH2 = 0.464
	    volScalarFieldValue fH  0.05701
	    volScalarFieldValue H2  0.05701
	    volScalarFieldValue O2  0.21966
	    volScalarFieldValue N2  0.72332

        );
    }
    boxToCell
    {
        box (-10 0.0170 -10) (10 10 10);

        fieldValues
        (
	    // xH2 = 0.472
	    volScalarFieldValue fH  0.05886
	    volScalarFieldValue H2  0.05886
	    volScalarFieldValue O2  0.21923
	    volScalarFieldValue N2  0.72190

        );
    }
    boxToCell
    {
        box (-10 0.0180 -10) (10 10 10);

        fieldValues
        (
	    // xH2 = 0.480
	    volScalarFieldValue fH  0.06066
	    volScalarFieldValue H2  0.06066
	    volScalarFieldValue O2  0.21881
	    volScalarFieldValue N2  0.72052

        );
    }
    boxToCell
    {
        box (-10 0.0190 -10) (10 10 10);

        fieldValues
        (
	    // xH2 = 0.488
	    volScalarFieldValue fH  0.06239
	    volScalarFieldValue H2  0.06239
	    volScalarFieldValue O2  0.21841
	    volScalarFieldValue N2  0.71920

        );
    }
    boxToCell
    {
        box (-10 0.0200 -10) (10 10 10);

        fieldValues
        (
	    // xH2 = 0.495
	    volScalarFieldValue fH  0.06403
	    volScalarFieldValue H2  0.06403
	    volScalarFieldValue O2  0.21803
	    volScalarFieldValue N2  0.71794

        );
    }
    boxToCell
    {
        box (-10 0.0210 -10) (10 10 10);

        fieldValues
        (
	    // xH2 = 0.501
	    volScalarFieldValue fH  0.06557
	    volScalarFieldValue H2  0.06557
	    volScalarFieldValue O2  0.21767
	    volScalarFieldValue N2  0.71676

        );
    }
    boxToCell
    {
        box (-10 0.0220 -10) (10 10 10);

        fieldValues
        (
	    // xH2 = 0.507
	    volScalarFieldValue fH  0.06699
	    volScalarFieldValue H2  0.06699
	    volScalarFieldValue O2  0.21734
	    volScalarFieldValue N2  0.71567

        );
    }
    boxToCell
    {
        box (-10 0.0230 -10) (10 10 10);

        fieldValues
        (
	    // xH2 = 0.512
	    volScalarFieldValue fH  0.06827
	    volScalarFieldValue H2  0.06827
	    volScalarFieldValue O2  0.21704
	    volScalarFieldValue N2  0.71469

        );
    }
    boxToCell
    {
        box (-10 0.0240 -10) (10 10 10);

        fieldValues
        (
	    // xH2 = 0.516
	    volScalarFieldValue fH  0.06940
	    volScalarFieldValue H2  0.06940
	    volScalarFieldValue O2  0.21678
	    volScalarFieldValue N2  0.71382

        );
    }
    boxToCell
    {
        box (-10 0.0250 -10) (10 10 10);

        fieldValues
        (
	    // xH2 = 0.520
	    volScalarFieldValue fH  0.07035
	    volScalarFieldValue H2  0.07035
	    volScalarFieldValue O2  0.21656
	    volScalarFieldValue N2  0.71309

        );
    }
    boxToCell
    {
        box (-10 0.0260 -10) (10 10 10);

        fieldValues
        (
	    // xH2 = 0.523
	    volScalarFieldValue fH  0.07112
	    volScalarFieldValue H2  0.07112
	    volScalarFieldValue O2  0.21638
	    volScalarFieldValue N2  0.71250

        );
    }
    boxToCell
    {
        box (-10 0.0270 -10) (10 10 10);

        fieldValues
        (
	    // xH2 = 0.525
	    volScalarFieldValue fH  0.07168
	    volScalarFieldValue H2  0.07168
	    volScalarFieldValue O2  0.21625
	    volScalarFieldValue N2  0.71207

        );
    }
    boxToCell
    {
        box (-10 0.0280 -10) (10 10 10);

        fieldValues
        (
	    // xH2 = 0.526
	    volScalarFieldValue fH  0.07202
	    volScalarFieldValue H2  0.07202
	    volScalarFieldValue O2  0.21617
	    volScalarFieldValue N2  0.71181

        );
    }
    boxToCell
    {
        box (-10 0.0290 -10) (10 10 10);

        fieldValues
        (
	    // xH2 = 0.527
	    volScalarFieldValue fH  0.07212
	    volScalarFieldValue H2  0.07212
	    volScalarFieldValue O2  0.21614
	    volScalarFieldValue N2  0.71173

        );
    }

    cylinderToCell
    {
        p1       (0.0 0.0 -1); // start point on cylinder axis
        p2       (0.0 0.0  1);  // end point on cylinder axis
        radius   0.02451;
        fieldValues
        (

            volScalarFieldValue c   1.00
            volScalarFieldValue fH  0.02908
            volScalarFieldValue H2  0.00058
            volScalarFieldValue O2  0.00000
            volScalarFieldValue H2O 0.25467
            volScalarFieldValue N2  0.71173
            volScalarFieldValue T   2448.5
        );
    }
);

// ************************************************************************* //
// inhomogeneous mixture for closed vessel with 30.0 % H2 generated         //
// ************************************************************************* //
